.SUBCKT AN2D2 A1 A2 Z VDD VSS
MM9 net14 A2 VSS VSS nch_mac l=30.0n w=0.14u
MM8 net26 A1 net14 VSS nch_mac l=30.0n w=0.14u
MM5 Z net26 VSS VSS nch_mac l=30.0n w=0.14u 
MM5_2 Z net26 VSS VSS nch_mac l=30.0n w=0.14u 
MM6 net26 A1 VDD VDD pch_mac l=30.0n w=170.0n
MM7 net26 A2 VDD VDD pch_mac l=30.0n w=0.17u
MM4 Z net26 VDD VDD pch_mac l=30.0n w=0.17u 
MM4_2 Z net26 VDD VDD pch_mac l=30.0n w=0.17u 
.ENDS
.SUBCKT AN3D2 A1 A2 A3 Z VDD VSS
MM13 net028 A2 net024 VSS nch_mac l=30.0n w=0.14u
MM14 net26 A1 net028 VSS nch_mac l=30.0n w=0.14u
MM12 net024 A3 VSS VSS nch_mac l=30.0n w=0.14u
MM5 Z net26 VSS VSS nch_mac l=30.0n w=0.14u 
MM5_2 Z net26 VSS VSS nch_mac l=30.0n w=0.14u 
MM10 net26 A2 VDD VDD pch_mac l=30.0n w=0.17u
MM4 Z net26 VDD VDD pch_mac l=30.0n w=0.17u 
MM4_2 Z net26 VDD VDD pch_mac l=30.0n w=0.17u 
MM15 net26 A3 VDD VDD pch_mac l=30.0n w=0.17u
MM11 net26 A1 VDD VDD pch_mac l=30.0n w=0.17u
.ENDS
.SUBCKT AN4D2 A1 A2 A3 A4 Z VDD VSS
MM5 Z net26 VSS VSS nch_mac l=30.0n w=0.14u 
MM5_2 Z net26 VSS VSS nch_mac l=30.0n w=0.14u 
MM22 net26 A1 net030 VSS nch_mac l=30.0n w=0.14u
MM20 net034 A3 net038 VSS nch_mac l=30.0n w=0.14u
MM19 net030 A2 net034 VSS nch_mac l=30.0n w=140.0n
MM21 net038 A4 VSS VSS nch_mac l=30.0n w=0.14u
MM23 net26 A4 VDD VDD pch_mac l=30.0n w=0.17u
MM4 Z net26 VDD VDD pch_mac l=30.0n w=0.17u 
MM4_2 Z net26 VDD VDD pch_mac l=30.0n w=0.17u 
MM16 net26 A3 VDD VDD pch_mac l=30.0n w=0.17u
MM17 net26 A1 VDD VDD pch_mac l=30.0n w=0.17u
MM18 net26 A2 VDD VDD pch_mac l=30.0n w=0.17u
.ENDS
.SUBCKT AO211D2 A1 A2 B C Z VDD VSS
MM5 Z net44 VSS VSS nch_mac l=30.0n w=0.14u 
MM5_2 Z net44 VSS VSS nch_mac l=30.0n w=0.14u 
MM0 net44 C VSS VSS nch_mac l=30.0n w=0.14u
MM3 net44 B VSS VSS nch_mac l=30.0n w=0.14u
MM8 net44 A1 net24 VSS nch_mac l=30.0n w=0.14u
MM9 net24 A2 VSS VSS nch_mac l=30.0n w=0.14u
MM4 Z net44 VDD VDD pch_mac l=30.0n w=0.17u 
MM4_2 Z net44 VDD VDD pch_mac l=30.0n w=0.17u 
MM1 net39 C VDD VDD pch_mac l=30.0n w=0.17u
MM2 net47 B net39 VDD pch_mac l=30.0n w=0.17u
MM6 net44 A1 net47 VDD pch_mac l=30.0n w=170.0n
MM7 net44 A2 net47 VDD pch_mac l=30.0n w=0.17u
.ENDS
.SUBCKT AO21D2 A1 A2 B Z VDD VSS
MM2 net7 A2 VSS VSS nch_mac l=30.0n w=0.14u
MM1 net11 A1 net7 VSS nch_mac l=30.0n w=0.14u
MM0 net11 B VSS VSS nch_mac l=30.0n w=0.14u
MM5 Z net11 VSS VSS nch_mac l=30.0n w=0.14u 
MM5_2 Z net11 VSS VSS nch_mac l=30.0n w=0.14u 
MM7 net34 B VDD VDD pch_mac l=30.0n w=0.17u
MM6 net11 A2 net34 VDD pch_mac l=30.0n w=170.0n
MM3 net11 A1 net34 VDD pch_mac l=30.0n w=0.17u
MM4 Z net11 VDD VDD pch_mac l=30.0n w=0.17u 
MM4_2 Z net11 VDD VDD pch_mac l=30.0n w=0.17u 
.ENDS
.SUBCKT AO22D2 A1 A2 B1 B2 Z VDD VSS
MM9 net12 A2 VSS VSS nch_mac l=30.0n w=0.14u
MM8 net16 B2 VSS VSS nch_mac l=30.0n w=0.14u
MM7 net24 B1 net16 VSS nch_mac l=30.0n w=0.14u
MM6 net24 A1 net12 VSS nch_mac l=30.0n w=0.14u
MM5 Z net24 VSS VSS nch_mac l=30.0n w=0.14u 
MM5_2 Z net24 VSS VSS nch_mac l=30.0n w=0.14u 
MM3 net24 A2 net39 VDD pch_mac l=30.0n w=0.17u
MM2 net24 A1 net39 VDD pch_mac l=30.0n w=0.17u
MM1 net39 B2 VDD VDD pch_mac l=30.0n w=0.17u
MM0 net39 B1 VDD VDD pch_mac l=30.0n w=170.0n
MM4 Z net24 VDD VDD pch_mac l=30.0n w=0.17u 
MM4_2 Z net24 VDD VDD pch_mac l=30.0n w=0.17u 
.ENDS
.SUBCKT AOI211D2 A1 A2 B C ZN VDD VSS
MM10 ZN A1 net033 VSS nch_mac l=30.0n w=0.14u
MM11 net033 A2 VSS VSS nch_mac l=30.0n w=140.0n
MM0 ZN C VSS VSS nch_mac l=30.0n w=0.14u 
MM0_2 ZN C VSS VSS nch_mac l=30.0n w=0.14u 
MM3 ZN B VSS VSS nch_mac l=30.0n w=0.14u 
MM3_2 ZN B VSS VSS nch_mac l=30.0n w=0.14u 
MM8 ZN A1 net24 VSS nch_mac l=30.0n w=0.14u
MM9 net24 A2 VSS VSS nch_mac l=30.0n w=0.14u
MM5 net47 B net047 VDD pch_mac l=30.0n w=0.17u
MM4 net047 C VDD VDD pch_mac l=30.0n w=0.17u
MM1 net39 C VDD VDD pch_mac l=30.0n w=0.17u
MM2 net47 B net39 VDD pch_mac l=30.0n w=0.17u
MM6 ZN A1 net47 VDD pch_mac l=30.0n w=0.17u 
MM6_2 ZN A1 net47 VDD pch_mac l=30.0n w=0.17u 
MM7 ZN A2 net47 VDD pch_mac l=30.0n w=0.17u 
MM7_2 ZN A2 net47 VDD pch_mac l=30.0n w=0.17u 
.ENDS
.SUBCKT AOI211OPTREPBD2 A1 A2 B C ZN VDD VSS
MP11_1 net051 A1 VDD VDD pch_mac l=30n w=170.0n
MP11_2 net051 A1 VDD VDD pch_mac l=30n w=170.0n
MP11_3 net051 A1 VDD VDD pch_mac l=30n w=170.0n
MP11_4 net051 A1 VDD VDD pch_mac l=30n w=170.0n
MP31_1 ZN B net037 VDD pch_mac l=30n w=170.0n
MP31_2 ZN B net037 VDD pch_mac l=30n w=170.0n
MP21_1 net037 C net051 VDD pch_mac l=30n w=170.0n
MP21_2 net037 C net051 VDD pch_mac l=30n w=170.0n
MP21_3 net037 C net051 VDD pch_mac l=30n w=170.0n
MP12_1 net051 A2 VDD VDD pch_mac l=30n w=170.0n
MP12_2 net051 A2 VDD VDD pch_mac l=30n w=170.0n
MP12_3 net051 A2 VDD VDD pch_mac l=30n w=170.0n
MP12_4 net051 A2 VDD VDD pch_mac l=30n w=170.0n
MN12_1 ZN B VSS VSS nch_mac l=30n w=140.0n
MN12_2 ZN B VSS VSS nch_mac l=30n w=140.0n
MN11_1 ZN A1 net022 VSS nch_mac l=30n w=140.0n
MN11_2 ZN A1 net022 VSS nch_mac l=30n w=140.0n
MN21_1 net022 A2 VSS VSS nch_mac l=30n w=140.0n
MN21_2 net022 A2 VSS VSS nch_mac l=30n w=140.0n
MN21_3 net022 A2 VSS VSS nch_mac l=30n w=140.0n
MN21_4 net022 A2 VSS VSS nch_mac l=30n w=140.0n
MN13_1 ZN C VSS VSS nch_mac l=30n w=140.0n
MN13_2 ZN C VSS VSS nch_mac l=30n w=140.0n
.ENDS
.SUBCKT AOI21D2 A1 A2 B ZN VDD VSS
MM5 ZN A1 net027 VSS nch_mac l=30.0n w=0.14u
MM4 net027 A2 VSS VSS nch_mac l=30.0n w=0.14u
MM2 net7 A2 VSS VSS nch_mac l=30.0n w=0.14u
MM1 ZN A1 net7 VSS nch_mac l=30.0n w=0.14u
MM0 ZN B VSS VSS nch_mac l=30.0n w=0.14u 
MM0_2 ZN B VSS VSS nch_mac l=30.0n w=0.14u 
MM7 net30 B VDD VDD pch_mac l=30.0n w=0.17u 
MM7_2 net30 B VDD VDD pch_mac l=30.0n w=0.17u 
MM6 ZN A2 net30 VDD pch_mac l=30.0n w=0.17u 
MM6_2 ZN A2 net30 VDD pch_mac l=30.0n w=0.17u 
MM3 ZN A1 net30 VDD pch_mac l=30.0n w=0.17u 
MM3_2 ZN A1 net30 VDD pch_mac l=30.0n w=0.17u 
.ENDS
.SUBCKT AOI21OPTREPBD2 A1 A2 B ZN VDD VSS
MP11_1 net037 A1 VDD VDD pch_mac l=30n w=170.0n
MP11_2 net037 A1 VDD VDD pch_mac l=30n w=170.0n
MP11_3 net037 A1 VDD VDD pch_mac l=30n w=170.0n
MP11_4 net037 A1 VDD VDD pch_mac l=30n w=170.0n
MP31_1 ZN B net037 VDD pch_mac l=30n w=170.0n
MP31_2 ZN B net037 VDD pch_mac l=30n w=170.0n
MP12_1 net037 A2 VDD VDD pch_mac l=30n w=170.0n
MP12_2 net037 A2 VDD VDD pch_mac l=30n w=170.0n
MP12_3 net037 A2 VDD VDD pch_mac l=30n w=170.0n
MP12_4 net037 A2 VDD VDD pch_mac l=30n w=170.0n
MN12_1 ZN B VSS VSS nch_mac l=30n w=140.0n
MN12_2 ZN B VSS VSS nch_mac l=30n w=140.0n
MN11_1 ZN A1 net022 VSS nch_mac l=30n w=140.0n
MN11_2 ZN A1 net022 VSS nch_mac l=30n w=140.0n
MN21_1 net022 A2 VSS VSS nch_mac l=30n w=140.0n
MN21_2 net022 A2 VSS VSS nch_mac l=30n w=140.0n
MN21_3 net022 A2 VSS VSS nch_mac l=30n w=140.0n
MN21_4 net022 A2 VSS VSS nch_mac l=30n w=140.0n
.ENDS
.SUBCKT AOI221D2 A1 A2 B1 B2 C ZN VDD VSS
MM11 ZN A1 net038 VSS nch_mac l=30.0n w=140.0n
MM12 net038 A2 VSS VSS nch_mac l=30.0n w=0.14u
MM13 net034 B2 VSS VSS nch_mac l=30.0n w=0.14u
MM14 ZN B1 net034 VSS nch_mac l=30.0n w=0.14u
MM5 ZN C VSS VSS nch_mac l=30.0n w=0.14u 
MM5_2 ZN C VSS VSS nch_mac l=30.0n w=0.14u 
MM1 net17 B2 VSS VSS nch_mac l=30.0n w=0.14u
MM0 ZN B1 net17 VSS nch_mac l=30.0n w=0.14u
MM8 ZN A1 net29 VSS nch_mac l=30.0n w=0.14u
MM9 net29 A2 VSS VSS nch_mac l=30.0n w=0.14u
MM4 net36 C VDD VDD pch_mac l=30.0n w=0.17u 
MM4_2 net36 C VDD VDD pch_mac l=30.0n w=0.17u 
MM3 net56 B2 net36 VDD pch_mac l=30.0n w=0.17u 
MM3_2 net56 B2 net36 VDD pch_mac l=30.0n w=0.17u 
MM2 net56 B1 net36 VDD pch_mac l=30.0n w=0.17u 
MM2_2 net56 B1 net36 VDD pch_mac l=30.0n w=0.17u 
MM6 ZN A1 net56 VDD pch_mac l=30.0n w=0.17u 
MM6_2 ZN A1 net56 VDD pch_mac l=30.0n w=0.17u 
MM7 ZN A2 net56 VDD pch_mac l=30.0n w=0.17u 
MM7_2 ZN A2 net56 VDD pch_mac l=30.0n w=0.17u 
.ENDS
.SUBCKT AOI222D2 A1 A2 B1 B2 C1 C2 ZN VDD VSS
MM14 ZN B1 net075 VSS nch_mac l=30.0n w=0.14u
MM15 net075 B2 VSS VSS nch_mac l=30.0n w=0.14u
MM16 ZN C1 net067 VSS nch_mac l=30.0n w=0.14u
MM17 net067 C2 VSS VSS nch_mac l=30.0n w=0.14u
MM18 net063 A2 VSS VSS nch_mac l=30.0n w=140.0n
MM19 ZN A1 net063 VSS nch_mac l=30.0n w=140.0n
MM12 ZN C1 net38 VSS nch_mac l=30.0n w=0.14u
MM13 net38 C2 VSS VSS nch_mac l=30.0n w=0.14u
MM9 net50 A2 VSS VSS nch_mac l=30.0n w=0.14u
MM8 ZN A1 net50 VSS nch_mac l=30.0n w=0.14u
MM0 ZN B1 net62 VSS nch_mac l=30.0n w=0.14u
MM1 net62 B2 VSS VSS nch_mac l=30.0n w=0.14u
MM4 net37 C1 VDD VDD pch_mac l=30.0n w=0.17u 
MM4_2 net37 C1 VDD VDD pch_mac l=30.0n w=0.17u 
MM5 net37 C2 VDD VDD pch_mac l=30.0n w=0.17u 
MM5_2 net37 C2 VDD VDD pch_mac l=30.0n w=0.17u 
MM7 ZN A2 net25 VDD pch_mac l=30.0n w=0.17u 
MM7_2 ZN A2 net25 VDD pch_mac l=30.0n w=0.17u 
MM6 ZN A1 net25 VDD pch_mac l=30.0n w=0.17u 
MM6_2 ZN A1 net25 VDD pch_mac l=30.0n w=0.17u 
MM2 net25 B1 net37 VDD pch_mac l=30.0n w=0.17u 
MM2_2 net25 B1 net37 VDD pch_mac l=30.0n w=0.17u 
MM3 net25 B2 net37 VDD pch_mac l=30.0n w=0.17u 
MM3_2 net25 B2 net37 VDD pch_mac l=30.0n w=0.17u 
.ENDS
.SUBCKT AOI22D2 A1 A2 B1 B2 ZN VDD VSS
MM10 net043 A2 VSS VSS nch_mac l=30.0n w=0.14u
MM11 ZN A1 net043 VSS nch_mac l=30.0n w=140.0n
MM12 net035 B2 VSS VSS nch_mac l=30.0n w=0.14u
MM13 ZN B1 net035 VSS nch_mac l=30.0n w=0.14u
MM9 net12 A2 VSS VSS nch_mac l=30.0n w=0.14u
MM8 net16 B2 VSS VSS nch_mac l=30.0n w=0.14u
MM7 ZN B1 net16 VSS nch_mac l=30.0n w=0.14u
MM6 ZN A1 net12 VSS nch_mac l=30.0n w=0.14u
MM3 ZN A2 net39 VDD pch_mac l=30.0n w=0.17u 
MM3_2 ZN A2 net39 VDD pch_mac l=30.0n w=0.17u 
MM2 ZN A1 net39 VDD pch_mac l=30.0n w=0.17u 
MM2_2 ZN A1 net39 VDD pch_mac l=30.0n w=0.17u 
MM1 net39 B2 VDD VDD pch_mac l=30.0n w=0.17u 
MM1_2 net39 B2 VDD VDD pch_mac l=30.0n w=0.17u 
MM0 net39 B1 VDD VDD pch_mac l=30.0n w=0.17u 
MM0_2 net39 B1 VDD VDD pch_mac l=30.0n w=0.17u 
.ENDS
.SUBCKT AOI31D2 A1 A2 A3 B ZN VDD VSS
MM2 net035 A3 VSS VSS nch_mac l=30.0n w=0.14u
MM3 net031 A2 net035 VSS nch_mac l=30.0n w=0.14u
MM4 ZN A1 net031 VSS nch_mac l=30.0n w=0.14u
MM0 ZN B VSS VSS nch_mac l=30.0n w=0.14u 
MM0_2 ZN B VSS VSS nch_mac l=30.0n w=0.14u 
MM12 net16 A3 VSS VSS nch_mac l=30.0n w=0.14u
MM13 net20 A2 net16 VSS nch_mac l=30.0n w=0.14u
MM14 ZN A1 net20 VSS nch_mac l=30.0n w=0.14u
MM1 net47 B VDD VDD pch_mac l=30.0n w=0.17u 
MM1_2 net47 B VDD VDD pch_mac l=30.0n w=0.17u 
MM10 ZN A2 net47 VDD pch_mac l=30.0n w=0.17u 
MM10_2 ZN A2 net47 VDD pch_mac l=30.0n w=0.17u 
MM11 ZN A1 net47 VDD pch_mac l=30.0n w=0.17u 
MM11_2 ZN A1 net47 VDD pch_mac l=30.0n w=0.17u 
MM15 ZN A3 net47 VDD pch_mac l=30.0n w=0.17u 
MM15_2 ZN A3 net47 VDD pch_mac l=30.0n w=0.17u 
.ENDS
.SUBCKT AOI32D2 A1 A2 A3 B1 B2 ZN VDD VSS
MM0 net046 A3 VSS VSS nch_mac l=30.0n w=0.14u
MM1 net042 A2 net046 VSS nch_mac l=30.0n w=0.14u
MM2 ZN A1 net042 VSS nch_mac l=30.0n w=0.14u
MM3 ZN B1 net030 VSS nch_mac l=30.0n w=0.14u
MM4 net030 B2 VSS VSS nch_mac l=30.0n w=0.14u
MM8 ZN B1 net17 VSS nch_mac l=30.0n w=0.14u
MM9 net17 B2 VSS VSS nch_mac l=30.0n w=0.14u
MM12 net21 A3 VSS VSS nch_mac l=30.0n w=0.14u
MM13 net25 A2 net21 VSS nch_mac l=30.0n w=0.14u
MM14 ZN A1 net25 VSS nch_mac l=30.0n w=0.14u
MM6 net56 B1 VDD VDD pch_mac l=30.0n w=0.17u 
MM6_2 net56 B1 VDD VDD pch_mac l=30.0n w=0.17u 
MM7 net56 B2 VDD VDD pch_mac l=30.0n w=0.17u 
MM7_2 net56 B2 VDD VDD pch_mac l=30.0n w=0.17u 
MM10 ZN A2 net56 VDD pch_mac l=30.0n w=0.17u 
MM10_2 ZN A2 net56 VDD pch_mac l=30.0n w=0.17u 
MM11 ZN A1 net56 VDD pch_mac l=30.0n w=0.17u 
MM11_2 ZN A1 net56 VDD pch_mac l=30.0n w=0.17u 
MM15 ZN A3 net56 VDD pch_mac l=30.0n w=0.17u 
MM15_2 ZN A3 net56 VDD pch_mac l=30.0n w=0.17u 
.ENDS
.SUBCKT AOI33D2 A1 A2 A3 B1 B2 B3 ZN VDD VSS
MM8 ZN A1 net050 VSS nch_mac l=30.0n w=0.14u
MM9 net042 B2 net038 VSS nch_mac l=30.0n w=0.14u
MM16 net038 B3 VSS VSS nch_mac l=30.0n w=0.14u
MM17 ZN B1 net042 VSS nch_mac l=30.0n w=0.14u
MM1 net035 B2 net039 VSS nch_mac l=30.0n w=0.14u
MM4 net054 A3 VSS VSS nch_mac l=30.0n w=0.14u
MM0 net039 B3 VSS VSS nch_mac l=30.0n w=0.14u
MM2 ZN B1 net035 VSS nch_mac l=30.0n w=0.14u
MM5 net050 A2 net054 VSS nch_mac l=30.0n w=0.14u
MM12 net21 A3 VSS VSS nch_mac l=30.0n w=0.14u
MM13 net25 A2 net21 VSS nch_mac l=30.0n w=0.14u
MM14 ZN A1 net25 VSS nch_mac l=30.0n w=0.14u
MM3 net56 B3 VDD VDD pch_mac l=30.0n w=0.17u 
MM3_2 net56 B3 VDD VDD pch_mac l=30.0n w=0.17u 
MM6 net56 B1 VDD VDD pch_mac l=30.0n w=0.17u 
MM6_2 net56 B1 VDD VDD pch_mac l=30.0n w=0.17u 
MM7 net56 B2 VDD VDD pch_mac l=30.0n w=0.17u 
MM7_2 net56 B2 VDD VDD pch_mac l=30.0n w=0.17u 
MM10 ZN A2 net56 VDD pch_mac l=30.0n w=0.17u 
MM10_2 ZN A2 net56 VDD pch_mac l=30.0n w=0.17u 
MM11 ZN A1 net56 VDD pch_mac l=30.0n w=0.17u 
MM11_2 ZN A1 net56 VDD pch_mac l=30.0n w=0.17u 
MM15 ZN A3 net56 VDD pch_mac l=30.0n w=0.17u 
MM15_2 ZN A3 net56 VDD pch_mac l=30.0n w=0.17u 
.ENDS
.SUBCKT BUFFD2 I Z VDD VSS
MM0 Z net9 VSS VSS nch_mac l=30.0n w=0.14u 
MM0_2 Z net9 VSS VSS nch_mac l=30.0n w=0.14u 
MM5 net9 I VSS VSS nch_mac l=30.0n w=0.14u
MM1 Z net9 VDD VDD pch_mac l=30.0n w=0.17u 
MM1_2 Z net9 VDD VDD pch_mac l=30.0n w=0.17u 
MM4 net9 I VDD VDD pch_mac l=30.0n w=0.17u
.ENDS
.SUBCKT CKAN2D2 A1 A2 Z VDD VSS
MXM1 _SP_11 A1 _SP_19 VSS nch_mac w=0.275u l=0.03u
MXM2 VSS A2 _SP_11 VSS nch_mac w=0.275u l=0.03u
MXM3 Z _SP_19 VSS VSS nch_mac w=0.14u l=0.03u 
MXM3_2 Z _SP_19 VSS VSS nch_mac w=0.14u l=0.03u 
MXM5 _SP_19 A1 VDD VDD pch_mac w=0.18u l=0.03u
MXM6 VDD A2 _SP_19 VDD pch_mac w=0.18u l=0.03u
MXM7 Z _SP_19 VDD VDD pch_mac w=0.17u l=0.03u 
MXM7_2 Z _SP_19 VDD VDD pch_mac w=0.17u l=0.03u 
.ENDS
.SUBCKT CKBD2 I Z VDD VSS
MM0 Z net9 VSS VSS nch_mac l=30.0n w=0.14u 
MM0_2 Z net9 VSS VSS nch_mac l=30.0n w=0.14u 
MM5 net9 I VSS VSS nch_mac l=30.0n w=0.22u
MM1 Z net9 VDD VDD pch_mac l=30.0n w=0.17u 
MM1_2 Z net9 VDD VDD pch_mac l=30.0n w=0.17u 
MM4 net9 I VDD VDD pch_mac l=30.0n w=0.17u
.ENDS
.SUBCKT CKLHQD2 Q TE CPN E VDD VSS
MM30 qf qf_x VSS VSS nch_mac l=30.0n w=0.14u
MM28 qf_x clkb net0190 VSS nch_mac l=30.0n w=0.14u
MM22 net11 CPN VSS VSS nch_mac l=30.0n w=0.155u
MM21 net11 net51 VSS VSS nch_mac l=30.0n w=0.155u
MM18 Q net11 VSS VSS nch_mac l=30.0n w=0.14u 
MM18_2 Q net11 VSS VSS nch_mac l=30.0n w=0.14u 
MM14 clkbb clkb VSS VSS nch_mac l=30.0n w=0.14u
MM11 clkb CPN VSS VSS nch_mac l=30.0n w=0.14u
MM31 net51 qf VSS VSS nch_mac l=30.0n w=0.14u
MM29 net0190 qf VSS VSS nch_mac l=30.0n w=0.14u
MM23 net37 TE VSS VSS nch_mac l=30.0n w=0.14u
MM2 net37 E VSS VSS nch_mac l=30.0n w=0.14u
MM5 qf_x clkbb net37 VSS nch_mac l=30.0n w=0.14u
MM26 qf qf_x VDD VDD pch_mac l=30.0n w=0.175u
MM25 net0245 qf VDD VDD pch_mac l=30.0n w=0.14u
MM24 qf_x clkbb net0245 VDD pch_mac l=30.0n w=0.14u
MM20 net56 net51 VDD VDD pch_mac l=30.0n w=0.17u
MM19 net11 CPN net56 VDD pch_mac l=30.0n w=0.17u
MM17 Q net11 VDD VDD pch_mac l=30.0n w=0.17u 
MM17_2 Q net11 VDD VDD pch_mac l=30.0n w=0.17u 
MM13 clkbb clkb VDD VDD pch_mac l=30.0n w=0.17u
MM27 net51 qf VDD VDD pch_mac l=30.0n w=0.17u
MM12 clkb CPN VDD VDD pch_mac l=30.0n w=170.0n
MM1 qf_x clkb net88 VDD pch_mac l=30.0n w=0.14u
MM0 net88 E net92 VDD pch_mac l=30.0n w=170.0n
MM4 net92 TE VDD VDD pch_mac l=30.0n w=0.17u
.ENDS
.SUBCKT CKLNQD2 TE E CP Q VDD VSS
MM5 qf_x clkb net59 VSS nch_mac l=30.0n w=0.14u
MM2 net59 E VSS VSS nch_mac l=30.0n w=0.14u
MM23 net59 TE VSS VSS nch_mac l=30.0n w=0.14u
MM11 clkb CP VSS VSS nch_mac l=30.0n w=0.14u
MM14 clkbb clkb VSS VSS nch_mac l=30.0n w=0.14u
MM28 qf_x clkbb net75 VSS nch_mac l=30.0n w=0.14u
MM29 net75 qf VSS VSS nch_mac l=30.0n w=0.14u
MM30 qf qf_x VSS VSS nch_mac l=30.0n w=0.14u
MM9 net83 qf VSS VSS nch_mac l=30.0n w=0.14u
MM8 net39 CP net83 VSS nch_mac l=30.0n w=0.14u
MM18 Q net39 VSS VSS nch_mac l=30.0n w=0.14u 
MM18_2 Q net39 VSS VSS nch_mac l=30.0n w=0.14u 
MM4 net14 TE VDD VDD pch_mac l=30.0n w=0.17u
MM0 net18 E net14 VDD pch_mac l=30.0n w=170.0n
MM1 qf_x clkbb net18 VDD pch_mac l=30.0n w=0.14u
MM12 clkb CP VDD VDD pch_mac l=30.0n w=170.0n
MM13 clkbb clkb VDD VDD pch_mac l=30.0n w=0.17u
MM24 qf_x clkb net30 VDD pch_mac l=30.0n w=0.14u
MM25 net30 qf VDD VDD pch_mac l=30.0n w=0.14u
MM26 qf qf_x VDD VDD pch_mac l=30.0n w=0.175u
MM7 net39 qf VDD VDD pch_mac l=30.0n w=0.185u
MM6 net39 CP VDD VDD pch_mac l=30.0n w=0.185u
MM17 Q net39 VDD VDD pch_mac l=30.0n w=0.17u 
MM17_2 Q net39 VDD VDD pch_mac l=30.0n w=0.17u 
.ENDS
.SUBCKT CKMUX2D2 I0 I1 S Z VDD VSS
MM10 Z net11 VSS VSS nch_mac l=30.0n w=0.26u 
MM10_2 Z net11 VSS VSS nch_mac l=30.0n w=0.26u 
MM7 net11 S net15 VSS nch_mac l=30.0n w=0.14u
MM6 net15 I1 VSS VSS nch_mac l=30.0n w=0.19u
MM3 net19 S VSS VSS nch_mac l=30.0n w=0.14u
MM1 net23 I0 VSS VSS nch_mac l=30.0n w=0.14u
MM5 net11 net19 net23 VSS nch_mac l=30.0n w=0.14u
MM11 Z net11 VDD VDD pch_mac l=30.0n w=0.17u 
MM11_2 Z net11 VDD VDD pch_mac l=30.0n w=0.17u 
MM9 net11 net19 net15 VDD pch_mac l=30.0n w=0.2u
MM8 net15 I1 VDD VDD pch_mac l=30.0n w=0.2u
MM2 net19 S VDD VDD pch_mac l=30.0n w=0.14u
MM0 net23 I0 VDD VDD pch_mac l=30.0n w=0.185u
MM4 net11 S net23 VDD pch_mac l=30.0n w=0.2u
.ENDS
.SUBCKT CKND2 I ZN VDD VSS
MM5 ZN I VSS VSS nch_mac l=30.0n w=0.25u 
MM5_2 ZN I VSS VSS nch_mac l=30.0n w=0.25u 
MM4 ZN I VDD VDD pch_mac l=30.0n w=0.32u 
MM4_2 ZN I VDD VDD pch_mac l=30.0n w=0.32u 
.ENDS
.SUBCKT CKND2D2 A1 A2 ZN VDD VSS
MM8 ZN A1 net5 VSS nch_mac l=30.0n w=0.14u 
MM8_2 ZN A1 net5 VSS nch_mac l=30.0n w=0.14u 
MM9 net5 A2 VSS VSS nch_mac l=30.0n w=0.14u 
MM9_2 net5 A2 VSS VSS nch_mac l=30.0n w=0.14u 
MM6 ZN A1 VDD VDD pch_mac l=30.0n w=0.165u 
MM6_2 ZN A1 VDD VDD pch_mac l=30.0n w=0.165u 
MM7 ZN A2 VDD VDD pch_mac l=30.0n w=0.165u 
MM7_2 ZN A2 VDD VDD pch_mac l=30.0n w=0.165u 
.ENDS
.SUBCKT CKXOR2D2 A1 A2 Z VDD VSS
MM9 net38 A1 net22 VSS nch_mac l=30.0n w=0.175u
MM25 net38 net18 net26 VSS nch_mac l=30.0n w=0.185u
MM7 Z net38 VSS VSS nch_mac l=30.0n w=0.18u 
MM7_2 Z net38 VSS VSS nch_mac l=30.0n w=0.18u 
MM6 net18 A1 VSS VSS nch_mac l=30.0n w=0.275u
MM1 net22 net26 VSS VSS nch_mac l=30.0n w=0.175u
MM5 net26 A2 VSS VSS nch_mac l=30.0n w=0.14u
MM10 net38 net18 net22 VDD pch_mac l=30.0n w=0.3u
MM24 net38 A1 net26 VDD pch_mac l=30.0n w=0.3u
MM8 Z net38 VDD VDD pch_mac l=30.0n w=0.3u
MM8B Z net38 VDD VDD pch_mac l=30.0n w=0.17u
MM3 net18 A1 VDD VDD pch_mac l=30.0n w=0.12u
MM2 net22 net26 VDD VDD pch_mac l=30.0n w=245.00n
MM4 net26 A2 VDD VDD pch_mac l=30.0n w=0.3u
.ENDS
.SUBCKT DFCND2 D CP CDN Q QN VDD VSS
MM2 qf_x qf net0165 VSS nch_mac l=30.0n w=0.14u
MM3 net0165 CDN VSS VSS nch_mac l=30.0n w=0.14u
MM73 net172 qf_x VSS VSS nch_mac l=30.0n w=0.14u
MSLTn1 qf clkbb mq VSS nch_mac l=30.0n w=0.25u
MM67 net172 clkb qf VSS nch_mac l=30.0n w=0.25u
MM69 QN net172 VSS VSS nch_mac l=30.0n w=0.14u 
MM69_2 QN net172 VSS VSS nch_mac l=30.0n w=0.14u 
MM71 Q qf_x VSS VSS nch_mac l=30.0n w=0.14u 
MM71_2 Q qf_x VSS VSS nch_mac l=30.0n w=0.14u 
MM65 net176 mq net184 VSS nch_mac l=30.0n w=0.12u
MM64 mq_x clkbb net176 VSS nch_mac l=30.0n w=0.12u
MM66 net184 CDN VSS VSS nch_mac l=30.0n w=0.12u
MM55 clkbb clkb VSS VSS nch_mac l=30.0n w=0.14u
MM46 mq_x clkb net212 VSS nch_mac l=30.0n w=0.185u
MM76 qf_x qf net208 VSS nch_mac l=30.0n w=140.0n
MM1 mq mq_x VSS VSS nch_mac l=30.0n w=0.14u
MM53 clkb CP VSS VSS nch_mac l=30.0n w=0.14u
MM75 net208 CDN VSS VSS nch_mac l=30.0n w=140.0n
MM47 net212 D VSS VSS nch_mac l=30.0n w=0.185u
MM78 qf_x CDN VDD VDD pch_mac l=30.0n w=0.17u 
MM78_2 qf_x CDN VDD VDD pch_mac l=30.0n w=0.17u 
MM77 qf_x qf VDD VDD pch_mac l=30.0n w=0.17u 
MM77_2 qf_x qf VDD VDD pch_mac l=30.0n w=0.17u 
MM45 mq_x clkbb net103 VDD pch_mac l=30.0n w=0.295u
MM70 QN net172 VDD VDD pch_mac l=30.0n w=0.17u 
MM70_2 QN net172 VDD VDD pch_mac l=30.0n w=0.17u 
MM74 net172 qf_x VDD VDD pch_mac l=30.0n w=0.17u
MM60 net0170 CDN VDD VDD pch_mac l=30.0n w=120n
MM0 mq mq_x VDD VDD pch_mac l=30.0n w=0.295u
MM61 net0170 mq VDD VDD pch_mac l=30.0n w=0.12u
MM56 clkbb clkb VDD VDD pch_mac l=30.0n w=0.17u
MM44 net103 D VDD VDD pch_mac l=30.0n w=0.295u
MM68 net172 clkbb qf VDD pch_mac l=30.0n w=0.295u
MM72 Q qf_x VDD VDD pch_mac l=30.0n w=0.17u 
MM72_2 Q qf_x VDD VDD pch_mac l=30.0n w=0.17u 
MM79 mq_x clkb net0170 VDD pch_mac l=30.0n w=0.12u
MSLTp1 qf clkb mq VDD pch_mac l=30.0n w=0.295u
MM54 clkb CP VDD VDD pch_mac l=30.0n w=0.17u
.ENDS
.SUBCKT DFCNQD2 D CP CDN Q VDD VSS
MM6 qf_x qf net0145 VSS nch_mac l=30.0n w=0.14u
MM7 net0145 CDN VSS VSS nch_mac l=30.0n w=0.14u
MM4 qf clkb net0152 VSS nch_mac l=30.0n w=0.25u
MM5 net0152 qf_x VSS VSS nch_mac l=30.0n w=0.14u
MSLTn1 qf clkbb mq VSS nch_mac l=30.0n w=0.25u
MM71 Q qf_x VSS VSS nch_mac l=30.0n w=0.14u 
MM71_2 Q qf_x VSS VSS nch_mac l=30.0n w=0.14u 
MM65 net176 mq net184 VSS nch_mac l=30.0n w=0.12u
MM64 mq_x clkbb net176 VSS nch_mac l=30.0n w=0.12u
MM66 net184 CDN VSS VSS nch_mac l=30.0n w=0.12u
MM55 clkbb clkb VSS VSS nch_mac l=30.0n w=0.14u
MM46 mq_x clkb net212 VSS nch_mac l=30.0n w=0.185u
MM76 qf_x qf net208 VSS nch_mac l=30.0n w=140.0n
MM1 mq mq_x VSS VSS nch_mac l=30.0n w=0.14u
MM53 clkb CP VSS VSS nch_mac l=30.0n w=0.14u
MM75 net208 CDN VSS VSS nch_mac l=30.0n w=140.0n
MM47 net212 D VSS VSS nch_mac l=30.0n w=0.185u
MM3 qf clkbb net097 VDD pch_mac l=30.0n w=0.295u
MM2 net097 qf_x VDD VDD pch_mac l=30.0n w=0.17u
MM45 mq_x clkbb net103 VDD pch_mac l=30.0n w=0.295u
MM60 net0143 CDN VDD VDD pch_mac l=30.0n w=120n
MM0 mq mq_x VDD VDD pch_mac l=30.0n w=0.295u
MM61 net0143 mq VDD VDD pch_mac l=30.0n w=0.12u
MM56 clkbb clkb VDD VDD pch_mac l=30.0n w=0.17u
MM78 qf_x CDN VDD VDD pch_mac l=30.0n w=0.17u 
MM78_2 qf_x CDN VDD VDD pch_mac l=30.0n w=0.17u 
MM77 qf_x qf VDD VDD pch_mac l=30.0n w=0.17u 
MM77_2 qf_x qf VDD VDD pch_mac l=30.0n w=0.17u 
MM44 net103 D VDD VDD pch_mac l=30.0n w=0.295u
MM72 Q qf_x VDD VDD pch_mac l=30.0n w=0.17u 
MM72_2 Q qf_x VDD VDD pch_mac l=30.0n w=0.17u 
MM79 mq_x clkb net0143 VDD pch_mac l=30.0n w=0.12u
MSLTp1 qf clkb mq VDD pch_mac l=30.0n w=0.295u
MM54 clkb CP VDD VDD pch_mac l=30.0n w=0.17u
.ENDS
.SUBCKT DFCSND2 D CP CDN SDN Q QN VDD VSS
MM4 qf_x qf net0178 VSS nch_mac l=30.0n w=0.14u
MM5 net0178 CDN VSS VSS nch_mac l=30.0n w=0.14u
MM2 net0176 qf_x VSS VSS nch_mac l=30.0n w=0.14u
MM0 net0198 mq_x VSS VSS nch_mac l=30.0n w=0.14u
MM73 net172 SDN net0176 VSS nch_mac l=30.0n w=0.14u
MSLTn1 qf clkbb mq VSS nch_mac l=30.0n w=0.25u
MM67 net172 clkb qf VSS nch_mac l=30.0n w=0.25u
MM69 QN net172 VSS VSS nch_mac l=30.0n w=0.14u 
MM69_2 QN net172 VSS VSS nch_mac l=30.0n w=0.14u 
MM71 Q qf_x VSS VSS nch_mac l=30.0n w=0.14u 
MM71_2 Q qf_x VSS VSS nch_mac l=30.0n w=0.14u 
MM65 net176 mq net184 VSS nch_mac l=30.0n w=0.12u
MM64 mq_x clkbb net176 VSS nch_mac l=30.0n w=0.12u
MM66 net184 CDN VSS VSS nch_mac l=30.0n w=0.12u
MM55 clkbb clkb VSS VSS nch_mac l=30.0n w=0.14u
MM46 mq_x clkb net212 VSS nch_mac l=30.0n w=0.185u
MM76 qf_x qf net208 VSS nch_mac l=30.0n w=140.0n
MM49 mq SDN net0198 VSS nch_mac l=30.0n w=0.14u
MM53 clkb CP VSS VSS nch_mac l=30.0n w=0.14u
MM75 net208 CDN VSS VSS nch_mac l=30.0n w=140.0n
MM47 net212 D VSS VSS nch_mac l=30.0n w=0.185u
MM45 mq_x clkbb net103 VDD pch_mac l=30.0n w=0.295u
MM70 QN net172 VDD VDD pch_mac l=30.0n w=0.17u 
MM70_2 QN net172 VDD VDD pch_mac l=30.0n w=0.17u 
MM74 net172 qf_x VDD VDD pch_mac l=30.0n w=0.17u
MM3 net172 SDN VDD VDD pch_mac l=30.0n w=0.12u
MM60 net0172 CDN VDD VDD pch_mac l=30.0n w=120n
MM50 mq mq_x VDD VDD pch_mac l=30.0n w=0.285u
MM61 net0172 mq VDD VDD pch_mac l=30.0n w=0.12u
MM56 clkbb clkb VDD VDD pch_mac l=30.0n w=0.17u
MM78 qf_x CDN VDD VDD pch_mac l=30.0n w=0.17u 
MM78_2 qf_x CDN VDD VDD pch_mac l=30.0n w=0.17u 
MM77 qf_x qf VDD VDD pch_mac l=30.0n w=0.17u 
MM77_2 qf_x qf VDD VDD pch_mac l=30.0n w=0.17u 
MM44 net103 D VDD VDD pch_mac l=30.0n w=0.295u
MM68 net172 clkbb qf VDD pch_mac l=30.0n w=0.12u
MM72 Q qf_x VDD VDD pch_mac l=30.0n w=0.17u 
MM72_2 Q qf_x VDD VDD pch_mac l=30.0n w=0.17u 
MM79 mq_x clkb net0172 VDD pch_mac l=30.0n w=0.12u
MSLTp1 qf clkb mq VDD pch_mac l=30.0n w=0.295u
MM54 clkb CP VDD VDD pch_mac l=30.0n w=0.17u
MM1 mq SDN VDD VDD pch_mac l=30.0n w=0.12u
.ENDS
.SUBCKT DFCSNQD2 D CP CDN SDN Q VDD VSS
MM4 qf_x qf net0178 VSS nch_mac l=30.0n w=0.14u
MM5 net0178 CDN VSS VSS nch_mac l=30.0n w=0.14u
MM2 net0176 qf_x VSS VSS nch_mac l=30.0n w=0.14u
MM0 net0187 mq_x VSS VSS nch_mac l=30.0n w=0.14u
MM73 net172 SDN net0176 VSS nch_mac l=30.0n w=0.14u
MSLTn1 qf clkbb mq VSS nch_mac l=30.0n w=0.25u
MM67 net172 clkb qf VSS nch_mac l=30.0n w=0.25u
MM71 Q qf_x VSS VSS nch_mac l=30.0n w=0.14u 
MM71_2 Q qf_x VSS VSS nch_mac l=30.0n w=0.14u 
MM65 net176 mq net184 VSS nch_mac l=30.0n w=0.12u
MM64 mq_x clkbb net176 VSS nch_mac l=30.0n w=0.12u
MM66 net184 CDN VSS VSS nch_mac l=30.0n w=0.12u
MM55 clkbb clkb VSS VSS nch_mac l=30.0n w=0.14u
MM46 mq_x clkb net212 VSS nch_mac l=30.0n w=0.185u
MM76 qf_x qf net208 VSS nch_mac l=30.0n w=140.0n
MM49 mq SDN net0187 VSS nch_mac l=30.0n w=0.14u
MM53 clkb CP VSS VSS nch_mac l=30.0n w=0.14u
MM75 net208 CDN VSS VSS nch_mac l=30.0n w=140.0n
MM47 net212 D VSS VSS nch_mac l=30.0n w=0.185u
MM45 mq_x clkbb net103 VDD pch_mac l=30.0n w=0.295u
MM74 net172 qf_x VDD VDD pch_mac l=30.0n w=0.17u
MM3 net172 SDN VDD VDD pch_mac l=30.0n w=0.12u
MM60 net0161 CDN VDD VDD pch_mac l=30.0n w=120n
MM50 mq mq_x VDD VDD pch_mac l=30.0n w=0.285u
MM61 net0161 mq VDD VDD pch_mac l=30.0n w=0.12u
MM56 clkbb clkb VDD VDD pch_mac l=30.0n w=0.17u
MM78 qf_x CDN VDD VDD pch_mac l=30.0n w=0.17u 
MM78_2 qf_x CDN VDD VDD pch_mac l=30.0n w=0.17u 
MM77 qf_x qf VDD VDD pch_mac l=30.0n w=0.17u 
MM77_2 qf_x qf VDD VDD pch_mac l=30.0n w=0.17u 
MM44 net103 D VDD VDD pch_mac l=30.0n w=0.295u
MM68 net172 clkbb qf VDD pch_mac l=30.0n w=0.12u
MM72 Q qf_x VDD VDD pch_mac l=30.0n w=0.17u 
MM72_2 Q qf_x VDD VDD pch_mac l=30.0n w=0.17u 
MM79 mq_x clkb net0161 VDD pch_mac l=30.0n w=0.12u
MSLTp1 qf clkb mq VDD pch_mac l=30.0n w=0.295u
MM54 clkb CP VDD VDD pch_mac l=30.0n w=0.17u
MM1 mq SDN VDD VDD pch_mac l=30.0n w=0.12u
.ENDS
.SUBCKT DFD2 D CP Q QN VDD VSS
MM73 net172 qf_x VSS VSS nch_mac l=30.0n w=0.14u
MSLTn1 qf clkbb mq VSS nch_mac l=30.0n w=0.27u
MM67 net172 clkb qf VSS nch_mac l=30.0n w=0.27u
MM69 QN net172 VSS VSS nch_mac l=30.0n w=0.14u 
MM69_2 QN net172 VSS VSS nch_mac l=30.0n w=0.14u 
MM71 Q qf_x VSS VSS nch_mac l=30.0n w=0.14u 
MM71_2 Q qf_x VSS VSS nch_mac l=30.0n w=0.14u 
MM64 mq_x clkbb net176 VSS nch_mac l=30.0n w=120n
MM66 net176 mq VSS VSS nch_mac l=30.0n w=120n
MM55 clkbb clkb VSS VSS nch_mac l=30.0n w=0.14u
MM46 mq_x clkb net212 VSS nch_mac l=30.0n w=0.175u
MM76 qf_x qf VSS VSS nch_mac l=30.0n w=140.0n
MM49 mq mq_x VSS VSS nch_mac l=30.0n w=0.18u
MM53 clkb CP VSS VSS nch_mac l=30.0n w=0.14u
MM47 net212 D VSS VSS nch_mac l=30.0n w=0.175u
MM45 mq_x clkbb net103 VDD pch_mac l=30.0n w=0.26u
MM70 QN net172 VDD VDD pch_mac l=30.0n w=0.17u 
MM70_2 QN net172 VDD VDD pch_mac l=30.0n w=0.17u 
MM74 net172 qf_x VDD VDD pch_mac l=30.0n w=0.26u
MM60 net0132 mq VDD VDD pch_mac l=30.0n w=120n
MM50 mq mq_x VDD VDD pch_mac l=30.0n w=0.175u
MM56 clkbb clkb VDD VDD pch_mac l=30.0n w=0.17u
MM77 qf_x qf VDD VDD pch_mac l=30.0n w=170.0n
MM44 net103 D VDD VDD pch_mac l=30.0n w=0.26u
MM68 net172 clkbb qf VDD pch_mac l=30.0n w=0.175u
MM72 Q qf_x VDD VDD pch_mac l=30.0n w=0.17u 
MM72_2 Q qf_x VDD VDD pch_mac l=30.0n w=0.17u 
MM79 mq_x clkb net0132 VDD pch_mac l=30.0n w=120n
MSLTp1 qf clkb mq VDD pch_mac l=30.0n w=0.175u
MM54 clkb CP VDD VDD pch_mac l=30.0n w=0.17u
.ENDS
.SUBCKT DFKCND2 D CP CN Q QN VDD VSS
MM2 net0146 CN VSS VSS nch_mac l=30.0n w=0.135u
MM4 net172 qf_x VSS VSS nch_mac l=30.0n w=0.135u
MSLTn1 qf clkbb mq VSS nch_mac l=30.0n w=0.135u
MM67 net172 clkb qf VSS nch_mac l=30.0n w=0.135u
MM69 QN net172 VSS VSS nch_mac l=30.0n w=0.14u 
MM69_2 QN net172 VSS VSS nch_mac l=30.0n w=0.14u 
MM71 Q qf_x VSS VSS nch_mac l=30.0n w=0.14u 
MM71_2 Q qf_x VSS VSS nch_mac l=30.0n w=0.14u 
MM64 mq_x clkbb net176 VSS nch_mac l=30.0n w=0.135u
MM66 net176 mq VSS VSS nch_mac l=30.0n w=0.135u
MM55 clkbb clkb VSS VSS nch_mac l=30.0n w=0.14u
MM46 mq_x clkb net212 VSS nch_mac l=30.0n w=0.135u
MM76 qf_x qf VSS VSS nch_mac l=30.0n w=0.135u
MM49 mq mq_x VSS VSS nch_mac l=30.0n w=0.135u
MM53 clkb CP VSS VSS nch_mac l=30.0n w=0.14u
MM47 net212 D net0146 VSS nch_mac l=30.0n w=0.135u
MM1 net090 CN VDD VDD pch_mac l=30.0n w=0.175u
MM3 net172 qf_x VDD VDD pch_mac l=30.0n w=0.185u
MM45 mq_x clkbb net090 VDD pch_mac l=30.0n w=0.175u
MM70 QN net172 VDD VDD pch_mac l=30.0n w=0.17u 
MM70_2 QN net172 VDD VDD pch_mac l=30.0n w=0.17u 
MM60 net0143 mq VDD VDD pch_mac l=30.0n w=120n
MM50 mq mq_x VDD VDD pch_mac l=30.0n w=0.185u
MM56 clkbb clkb VDD VDD pch_mac l=30.0n w=0.17u
MM77 qf_x qf VDD VDD pch_mac l=30.0n w=0.185u
MM44 net090 D VDD VDD pch_mac l=30.0n w=0.175u
MM68 net172 clkbb qf VDD pch_mac l=30.0n w=0.185u
MM72 Q qf_x VDD VDD pch_mac l=30.0n w=0.17u 
MM72_2 Q qf_x VDD VDD pch_mac l=30.0n w=0.17u 
MM79 mq_x clkb net0143 VDD pch_mac l=30.0n w=120n
MSLTp1 qf clkb mq VDD pch_mac l=30.0n w=0.185u
MM54 clkb CP VDD VDD pch_mac l=30.0n w=0.17u
.ENDS
.SUBCKT DFKCNQD2 D CP CN Q VDD VSS
MM2 net0146 CN VSS VSS nch_mac l=30.0n w=0.25u
MM5 qf clkb net0147 VSS nch_mac l=30.0n w=0.15u
MM6 net0147 qf_x VSS VSS nch_mac l=30.0n w=0.15u
MSLTn1 qf clkbb mq VSS nch_mac l=30.0n w=0.15u
MM71 Q qf_x VSS VSS nch_mac l=30.0n w=0.14u 
MM71_2 Q qf_x VSS VSS nch_mac l=30.0n w=0.14u 
MM64 mq_x clkbb net176 VSS nch_mac l=30.0n w=0.15u
MM66 net176 mq VSS VSS nch_mac l=30.0n w=0.15u
MM55 clkbb clkb VSS VSS nch_mac l=30.0n w=0.14u
MM46 mq_x clkb net212 VSS nch_mac l=30.0n w=0.15u
MM76 qf_x qf VSS VSS nch_mac l=30.0n w=140.0n
MM49 mq mq_x VSS VSS nch_mac l=30.0n w=0.15u
MM53 clkb CP VSS VSS nch_mac l=30.0n w=0.14u
MM47 net212 D net0146 VSS nch_mac l=30.0n w=0.25u
MM4 qf clkbb net088 VDD pch_mac l=30.0n w=0.175u
MM1 net090 CN VDD VDD pch_mac l=30.0n w=0.175u
MM3 net088 qf_x VDD VDD pch_mac l=30.0n w=0.175u
MM45 mq_x clkbb net090 VDD pch_mac l=30.0n w=0.175u
MM60 net0128 mq VDD VDD pch_mac l=30.0n w=0.175u
MM50 mq mq_x VDD VDD pch_mac l=30.0n w=0.175u
MM56 clkbb clkb VDD VDD pch_mac l=30.0n w=0.17u
MM77 qf_x qf VDD VDD pch_mac l=30.0n w=170.0n
MM44 net090 D VDD VDD pch_mac l=30.0n w=0.175u
MM72 Q qf_x VDD VDD pch_mac l=30.0n w=0.17u 
MM72_2 Q qf_x VDD VDD pch_mac l=30.0n w=0.17u 
MM79 mq_x clkb net0128 VDD pch_mac l=30.0n w=0.175u
MSLTp1 qf clkb mq VDD pch_mac l=30.0n w=0.175u
MM54 clkb CP VDD VDD pch_mac l=30.0n w=0.17u
.ENDS
.SUBCKT DFKCSND2 D CP CN SN Q QN VDD VSS
MM4 net0173 SN VSS VSS nch_mac l=30.0n w=0.14u
MM5 net212 net0173 net0146 VSS nch_mac l=30.0n w=0.12u
MM2 net0146 CN VSS VSS nch_mac l=30.0n w=0.14u
MM8 net172 qf_x VSS VSS nch_mac l=30.0n w=0.135u